Version 4
SHEET 1 2396 3396
WIRE 352 -320 256 -320
WIRE 720 -320 464 -320
WIRE 256 -256 256 -320
WIRE 464 -192 464 -320
WIRE 720 -144 720 -320
WIRE 112 -112 112 -160
WIRE 256 -112 256 -176
WIRE 256 -112 112 -112
WIRE 464 0 464 -112
WIRE -288 16 -416 16
WIRE 48 16 -208 16
WIRE 352 16 352 -320
WIRE 352 16 240 16
WIRE 48 112 16 112
WIRE 320 112 240 112
WIRE 400 112 320 112
WIRE 320 192 320 112
WIRE -416 224 -416 16
WIRE -416 352 -416 304
WIRE 16 352 16 112
WIRE 16 352 -416 352
WIRE 96 352 16 352
WIRE 320 352 320 272
WIRE 320 352 176 352
WIRE 464 352 464 128
WIRE 464 352 320 352
WIRE 560 352 464 352
WIRE 720 352 720 -64
WIRE 720 352 560 352
WIRE 368 512 272 512
WIRE 736 512 480 512
WIRE 272 576 272 512
WIRE 480 640 480 512
WIRE 736 688 736 512
WIRE 128 720 128 672
WIRE 272 720 272 656
WIRE 272 720 128 720
WIRE 480 832 480 720
WIRE -336 848 -400 848
WIRE -224 848 -336 848
WIRE 64 848 -144 848
WIRE 368 848 368 512
WIRE 368 848 256 848
WIRE 64 944 32 944
WIRE 336 944 256 944
WIRE 416 944 336 944
WIRE 336 1024 336 944
WIRE -400 1056 -400 848
WIRE -400 1184 -400 1136
WIRE 32 1184 32 944
WIRE 32 1184 -400 1184
WIRE 112 1184 32 1184
WIRE 336 1184 336 1104
WIRE 336 1184 192 1184
WIRE 480 1184 480 960
WIRE 480 1184 336 1184
WIRE 576 1184 480 1184
WIRE 736 1184 736 768
WIRE 736 1184 576 1184
WIRE 368 1296 240 1296
WIRE 736 1296 480 1296
WIRE 240 1360 240 1296
WIRE 480 1424 480 1296
WIRE 736 1472 736 1296
WIRE 128 1488 128 1440
WIRE 240 1488 240 1440
WIRE 240 1488 128 1488
WIRE 480 1616 480 1504
WIRE -336 1632 -400 1632
WIRE -224 1632 -336 1632
WIRE 64 1632 -144 1632
WIRE 368 1632 368 1296
WIRE 368 1632 256 1632
WIRE 64 1728 32 1728
WIRE 336 1728 256 1728
WIRE 416 1728 336 1728
WIRE 336 1808 336 1728
WIRE -400 1840 -400 1632
WIRE -400 1968 -400 1920
WIRE 32 1968 32 1728
WIRE 32 1968 -400 1968
WIRE 112 1968 32 1968
WIRE 336 1968 336 1888
WIRE 336 1968 192 1968
WIRE 480 1968 480 1744
WIRE 480 1968 336 1968
WIRE 576 1968 480 1968
WIRE 736 1968 736 1552
WIRE 736 1968 576 1968
WIRE -16 2080 -160 2080
WIRE 368 2096 224 2096
WIRE 480 2096 368 2096
WIRE 736 2096 480 2096
WIRE -160 2128 -160 2080
WIRE 480 2224 480 2096
WIRE -272 2288 -272 2208
WIRE -160 2288 -160 2208
WIRE -160 2288 -272 2288
WIRE 176 2368 112 2368
WIRE 320 2368 256 2368
WIRE 736 2400 736 2096
WIRE 480 2416 480 2304
WIRE -720 2432 -784 2432
WIRE -608 2432 -720 2432
WIRE -320 2432 -528 2432
WIRE -16 2432 -16 2080
WIRE -16 2432 -128 2432
WIRE 224 2480 224 2096
WIRE 112 2496 112 2368
WIRE 192 2496 112 2496
WIRE 320 2512 320 2368
WIRE 320 2512 256 2512
WIRE -320 2528 -352 2528
WIRE 0 2528 -128 2528
WIRE 192 2528 80 2528
WIRE 368 2528 368 2096
WIRE 416 2528 368 2528
WIRE -784 2640 -784 2432
WIRE -784 2768 -784 2720
WIRE -352 2768 -352 2528
WIRE -352 2768 -784 2768
WIRE -272 2768 -352 2768
WIRE 112 2768 112 2496
WIRE 112 2768 -192 2768
WIRE 224 2768 224 2544
WIRE 224 2768 112 2768
WIRE 480 2768 480 2544
WIRE 480 2768 224 2768
WIRE 640 2768 480 2768
WIRE 736 2768 736 2480
WIRE 736 2768 640 2768
FLAG 320 112 vg1
FLAG 560 352 GND_POWER1
FLAG -416 352 0
FLAG 336 944 vg2
FLAG 576 1184 GND_POWER2
FLAG -400 1184 0
FLAG -336 848 Micro2
FLAG 336 1728 vg3
FLAG 576 1968 GND_POWER3
FLAG -400 1968 0
FLAG -336 1632 Micro3
FLAG -416 16 Micro1
FLAG 640 2768 GND_POWER4
FLAG -784 2768 0
FLAG -720 2432 Micro4
FLAG 112 -160 GND_POWER1
FLAG 128 672 GND_POWER2
FLAG 128 1440 GND_POWER3
FLAG -272 2208 GND_POWER4
SYMBOL voltage -416 208 R0
WINDOW 3 -457 47 Left 2
WINDOW 123 0 0 Left 2
WINDOW 39 0 0 Left 2
SYMATTR Value PULSE(0 5 1p 1p 1p 1m 2m)
SYMATTR InstName V1
SYMBOL res 304 176 R0
SYMATTR InstName Rg1
SYMATTR Value 10K
SYMBOL voltage 720 -160 R0
WINDOW 123 0 0 Left 2
WINDOW 39 0 0 Left 2
SYMATTR InstName VPower1
SYMATTR Value 12
SYMBOL AutoGenerated\\irf640ns 464 64 R0
SYMATTR InstName U1
SYMBOL res 448 -208 R0
SYMATTR InstName RLoad1
SYMATTR Value 1
SYMBOL res 192 336 R90
WINDOW 0 0 56 VBottom 2
WINDOW 3 32 56 VTop 2
SYMATTR InstName Ri1
SYMATTR Value 99Meg
SYMBOL Optos\\PC817A 144 64 R0
SYMATTR InstName OP1
SYMBOL voltage -400 1040 R0
WINDOW 3 -457 47 Left 2
WINDOW 123 0 0 Left 2
WINDOW 39 0 0 Left 2
SYMATTR Value PULSE(0 5 1p 1p 1p 1m 2m)
SYMATTR InstName V2
SYMBOL res 320 1008 R0
SYMATTR InstName Rg2
SYMATTR Value 10K
SYMBOL voltage 736 672 R0
WINDOW 123 0 0 Left 2
WINDOW 39 0 0 Left 2
SYMATTR InstName VPower2
SYMATTR Value 12
SYMBOL AutoGenerated\\irf640ns 480 896 R0
SYMATTR InstName U2
SYMBOL res 464 624 R0
SYMATTR InstName RLoad2
SYMATTR Value 1
SYMBOL res -128 832 R90
WINDOW 0 0 56 VBottom 2
WINDOW 3 32 56 VTop 2
SYMATTR InstName R2
SYMATTR Value 1k
SYMBOL res 208 1168 R90
WINDOW 0 0 56 VBottom 2
WINDOW 3 32 56 VTop 2
SYMATTR InstName Ri2
SYMATTR Value 10Meg
SYMBOL voltage -400 1824 R0
WINDOW 3 -457 47 Left 2
WINDOW 123 0 0 Left 2
WINDOW 39 0 0 Left 2
SYMATTR Value PULSE(0 5 1p 1p 1p 1m 2m)
SYMATTR InstName V3
SYMBOL res 320 1792 R0
SYMATTR InstName Rg3
SYMATTR Value 10K
SYMBOL voltage 736 1456 R0
WINDOW 123 0 0 Left 2
WINDOW 39 0 0 Left 2
SYMATTR InstName VPower3
SYMATTR Value 12
SYMBOL AutoGenerated\\irf640ns 480 1680 R0
SYMATTR InstName U3
SYMBOL res 464 1408 R0
SYMATTR InstName RLoad3
SYMATTR Value 1
SYMBOL res -128 1616 R90
WINDOW 0 0 56 VBottom 2
WINDOW 3 32 56 VTop 2
SYMATTR InstName R3
SYMATTR Value 1k
SYMBOL res 208 1952 R90
WINDOW 0 0 56 VBottom 2
WINDOW 3 32 56 VTop 2
SYMATTR InstName Ri3
SYMATTR Value 10Meg
SYMBOL Optos\\PC817C 160 1680 R0
SYMATTR InstName OP3
SYMBOL res -192 0 R90
WINDOW 0 0 56 VBottom 2
WINDOW 3 32 56 VTop 2
SYMATTR InstName R1
SYMATTR Value 1k
SYMBOL Optos\\PC817B 160 896 R0
SYMATTR InstName OP2
SYMBOL voltage -784 2624 R0
WINDOW 3 -457 47 Left 2
WINDOW 123 0 0 Left 2
WINDOW 39 0 0 Left 2
SYMATTR Value PULSE(0 5 1p 1p 1p 1m 2m)
SYMATTR InstName V4
SYMBOL voltage 736 2384 R0
WINDOW 123 0 0 Left 2
WINDOW 39 0 0 Left 2
SYMATTR InstName VPower4
SYMATTR Value 12
SYMBOL AutoGenerated\\irf640ns 480 2480 R0
SYMATTR InstName U4
SYMBOL res 464 2208 R0
SYMATTR InstName RLoad4
SYMATTR Value 1
SYMBOL res -512 2416 R90
WINDOW 0 0 56 VBottom 2
WINDOW 3 32 56 VTop 2
SYMATTR InstName R4
SYMATTR Value 220
SYMBOL res -176 2752 R90
WINDOW 0 0 56 VBottom 2
WINDOW 3 32 56 VTop 2
SYMATTR InstName Ri4
SYMATTR Value 10Meg
SYMBOL Optos\\PC817C -224 2480 R0
SYMATTR InstName OP4
SYMBOL voltage -160 2112 R0
WINDOW 123 0 0 Left 2
WINDOW 39 0 0 Left 2
SYMATTR InstName SignalFix4
SYMATTR Value 4
SYMBOL voltage 240 1344 R0
WINDOW 123 0 0 Left 2
WINDOW 39 0 0 Left 2
SYMATTR InstName SignalFix3
SYMATTR Value 4
SYMBOL voltage 272 560 R0
WINDOW 123 0 0 Left 2
WINDOW 39 0 0 Left 2
SYMATTR InstName SignalFix2
SYMATTR Value 4
SYMBOL voltage 256 -272 R0
WINDOW 123 0 0 Left 2
WINDOW 39 0 0 Left 2
SYMATTR InstName SignalFix1
SYMATTR Value 4
SYMBOL Opamps\\OP07 224 2448 R0
SYMATTR InstName U5
SYMBOL res 272 2352 R90
WINDOW 0 0 56 VBottom 2
WINDOW 3 32 56 VTop 2
SYMATTR InstName R5
SYMATTR Value 10k
SYMBOL res 96 2512 R90
WINDOW 0 0 56 VBottom 2
WINDOW 3 32 56 VTop 2
SYMATTR InstName R6
SYMATTR Value 1k
TEXT -1392 504 Left 2 !.tran 0 10m 1m 1p
TEXT -1392 440 Left 2 !.op
TEXT -1408 552 Left 2 !.TEMP 50
