Version 4
SHEET 1 2396 3396
WIRE 352 -320 256 -320
WIRE 256 -256 256 -320
WIRE 608 -224 608 -320
WIRE 864 -224 864 -320
WIRE 256 -144 256 -176
WIRE 864 -96 864 -144
WIRE 1168 -64 1168 -112
WIRE 1328 -64 1328 -112
WIRE -288 16 -416 16
WIRE 48 16 -208 16
WIRE 352 16 352 -320
WIRE 352 16 240 16
WIRE 608 16 608 -144
WIRE 800 16 608 16
WIRE 608 64 608 16
WIRE 1168 64 1168 16
WIRE 1328 64 1328 16
WIRE 48 112 16 112
WIRE 320 112 240 112
WIRE 544 112 320 112
WIRE -416 224 -416 16
WIRE -416 352 -416 304
WIRE 16 352 16 112
WIRE 16 352 -416 352
WIRE 608 352 608 160
WIRE 864 352 864 32
WIRE 864 352 608 352
FLAG 320 112 vg1
FLAG -416 352 0
FLAG -416 16 Micro1
FLAG 256 -144 0
FLAG 608 -320 12V
FLAG 864 -320 Ext
FLAG 1168 64 0
FLAG 1328 64 0
FLAG 1168 -112 12V
FLAG 1328 -112 Ext
FLAG 608 352 0
SYMBOL voltage -416 208 R0
WINDOW 3 -340 48 Left 2
WINDOW 123 0 0 Left 2
WINDOW 39 0 0 Left 2
SYMATTR Value PULSE(0 5 1p 1p 1p 1m 2m)
SYMATTR InstName V1
SYMBOL Optos\\PC817A 144 64 R0
SYMATTR InstName OP1
SYMBOL res -192 0 R90
WINDOW 0 0 56 VBottom 2
WINDOW 3 32 56 VTop 2
SYMATTR InstName R1
SYMATTR Value 220
SYMBOL voltage 256 -272 R0
WINDOW 123 0 0 Left 2
WINDOW 39 0 0 Left 2
SYMATTR InstName SignalFix1
SYMATTR Value 5
SYMBOL AutoGenerated\\irf640ns 864 -32 R0
SYMATTR InstName U1
SYMBOL npn 544 64 R0
SYMATTR InstName Q1
SYMATTR Value BC817-25
SYMBOL res 592 -240 R0
SYMATTR InstName R2
SYMATTR Value 10k
SYMBOL res 848 -240 R0
SYMATTR InstName R3
SYMATTR Value 1
SYMBOL voltage 1168 -80 R0
WINDOW 123 0 0 Left 2
WINDOW 39 0 0 Left 2
SYMATTR InstName V2
SYMATTR Value 12
SYMBOL voltage 1328 -80 R0
WINDOW 123 0 0 Left 2
WINDOW 39 0 0 Left 2
SYMATTR InstName V3
SYMATTR Value 12
TEXT -896 128 Left 2 !.tran 1
TEXT -896 88 Left 2 !.op
TEXT -896 176 Left 2 !.TEMP 100
